<additional>
    <edgeData id="bus_stats" file="bus_results.xml" freq="360" vClass="bus" edges="E0E1 E1E2 E2E3 E3E4 E4E5"/>

    <tlLogic id="E1" type="static" programID="default" offset="0">
        <phase duration="30" state="grrrgGGrgrrrgGGr"/>
        <phase duration="3"  state="grrrgGGrgrrrgyyr"/>
        <phase duration="15" state="grrrgGGGgrrrgrrr"/>
        <phase duration="3"  state="grrrgyyygrrrgrrr"/>
        <phase duration="15" state="grrrgrrrgrrrgGGG"/>
        <phase duration="3"  state="grrrgrrrgrrrgyyG"/>
        <phase duration="15" state="grrrgrrGgrrrgrrG"/>
        <phase duration="3"  state="grrrgrrygrrrgrry"/>
        <phase duration="30" state="gGGrgrrrgGGrgrrr"/>
        <phase duration="3"  state="gyyrgrrrgGGrgrrr"/>
        <phase duration="15" state="grrrgrrrgGGGgrrr"/>
        <phase duration="3"  state="grrrgrrrgyyygrrr"/>
        <phase duration="15" state="gGGGgrrrgrrrgrrr"/>
        <phase duration="3"  state="gyyGgrrrgrrrgrrr"/>
        <phase duration="15" state="grrGgrrrgrrGgrrr"/>
        <phase duration="3"  state="grrygrrrgrrygrrr"/>
    </tlLogic>
    <tlLogic id="E2" type="static" programID="default" offset="0">
        <phase duration="30" state="grrrgGGrgrrrgGGr"/>
        <phase duration="3"  state="grrrgGGrgrrrgyyr"/>
        <phase duration="15" state="grrrgGGGgrrrgrrr"/>
        <phase duration="3"  state="grrrgyyygrrrgrrr"/>
        <phase duration="15" state="grrrgrrrgrrrgGGG"/>
        <phase duration="3"  state="grrrgrrrgrrrgyyG"/>
        <phase duration="15" state="grrrgrrGgrrrgrrG"/>
        <phase duration="3"  state="grrrgrrygrrrgrry"/>
        <phase duration="30" state="gGGrgrrrgGGrgrrr"/>
        <phase duration="3"  state="gyyrgrrrgGGrgrrr"/>
        <phase duration="15" state="grrrgrrrgGGGgrrr"/>
        <phase duration="3"  state="grrrgrrrgyyygrrr"/>
        <phase duration="15" state="gGGGgrrrgrrrgrrr"/>
        <phase duration="3"  state="gyyGgrrrgrrrgrrr"/>
        <phase duration="15" state="grrGgrrrgrrGgrrr"/>
        <phase duration="3"  state="grrygrrrgrrygrrr"/>
    </tlLogic>
    <tlLogic id="E3" type="static" programID="default" offset="0">
        <phase duration="30" state="grrrgGGrgrrrgGGr"/>
        <phase duration="3"  state="grrrgGGrgrrrgyyr"/>
        <phase duration="15" state="grrrgGGGgrrrgrrr"/>
        <phase duration="3"  state="grrrgyyygrrrgrrr"/>
        <phase duration="15" state="grrrgrrrgrrrgGGG"/>
        <phase duration="3"  state="grrrgrrrgrrrgyyG"/>
        <phase duration="15" state="grrrgrrGgrrrgrrG"/>
        <phase duration="3"  state="grrrgrrygrrrgrry"/>
        <phase duration="30" state="gGGrgrrrgGGrgrrr"/>
        <phase duration="3"  state="gyyrgrrrgGGrgrrr"/>
        <phase duration="15" state="grrrgrrrgGGGgrrr"/>
        <phase duration="3"  state="grrrgrrrgyyygrrr"/>
        <phase duration="15" state="gGGGgrrrgrrrgrrr"/>
        <phase duration="3"  state="gyyGgrrrgrrrgrrr"/>
        <phase duration="15" state="grrGgrrrgrrGgrrr"/>
        <phase duration="3"  state="grrygrrrgrrygrrr"/>
    </tlLogic>
    <tlLogic id="E4" type="static" programID="default" offset="0">
        <phase duration="30" state="grrrgGGrgrrrgGGr"/>
        <phase duration="3"  state="grrrgGGrgrrrgyyr"/>
        <phase duration="15" state="grrrgGGGgrrrgrrr"/>
        <phase duration="3"  state="grrrgyyygrrrgrrr"/>
        <phase duration="15" state="grrrgrrrgrrrgGGG"/>
        <phase duration="3"  state="grrrgrrrgrrrgyyG"/>
        <phase duration="15" state="grrrgrrGgrrrgrrG"/>
        <phase duration="3"  state="grrrgrrygrrrgrry"/>
        <phase duration="30" state="gGGrgrrrgGGrgrrr"/>
        <phase duration="3"  state="gyyrgrrrgGGrgrrr"/>
        <phase duration="15" state="grrrgrrrgGGGgrrr"/>
        <phase duration="3"  state="grrrgrrrgyyygrrr"/>
        <phase duration="15" state="gGGGgrrrgrrrgrrr"/>
        <phase duration="3"  state="gyyGgrrrgrrrgrrr"/>
        <phase duration="15" state="grrGgrrrgrrGgrrr"/>
        <phase duration="3"  state="grrygrrrgrrygrrr"/>
    </tlLogic>
</additional>
