<configuration>
  <input>
    <net-file value="ff.net.xml"/>
	  <route-files value="ff_heterogeneous.rou.xml"/>
    <additional-files value="corridor.add.xml"/>
  </input>
  <time>
    <begin value="0"/>
    <end value="3600"/>
  </time>
  <output>
    <tripinfo-output value="results_tripinfo.xml"/>
    <summary-output value="results_summary.xml"/>
  </output>
</configuration>
